# generated using pymatgen
data_Cu2H59C77N3O10
_symmetry_space_group_name_H-M   'P 1'
_cell_length_a   24.13971319
_cell_length_b   15.39432467
_cell_length_c   17.83753173
_cell_angle_alpha   86.57071558
_cell_angle_beta   88.27035222
_cell_angle_gamma   88.38220242
_symmetry_Int_Tables_number   1
_chemical_formula_structural   Cu2H59C77N3O10
_chemical_formula_sum   'Cu2 H59 C77 N3 O10'
_cell_volume   6611.48244552
_cell_formula_units_Z   1
loop_
 _symmetry_equiv_pos_site_id
 _symmetry_equiv_pos_as_xyz
  1  'x, y, z'
loop_
 _atom_site_type_symbol
 _atom_site_label
 _atom_site_symmetry_multiplicity
 _atom_site_fract_x
 _atom_site_fract_y
 _atom_site_fract_z
 _atom_site_occupancy
  C  C0  1  -0.32028519  -0.01329062  -0.84166018  1
  C  C1  1  -0.28804483  0.04017205  -0.79007775  1
  C  C2  1  -0.37870512  -0.00048411  -0.84787483  1
  C  C3  1  -0.40622346  0.08034559  -0.81707096  1
  C  C4  1  -0.40977813  -0.06200735  -0.88569032  1
  C  C5  1  -0.38008471  -0.12460553  -0.92738936  1
  C  C6  1  -0.32225944  -0.13011130  -0.92713672  1
  C  C7  1  -0.40814759  -0.18185382  -0.96976539  1
  C  C8  1  -0.46561114  -0.18035759  -0.97066200  1
  C  C9  1  -0.49735739  -0.12284171  -0.92710994  1
  C  C10  1  -0.46906069  -0.06462462  -0.88319292  1
  N  N11  1  -0.49932754  -0.01429417  -0.83613663  1
  C  C12  1  -0.55530806  -0.01380950  -0.83052894  1
  C  C13  1  -0.58527636  -0.06660029  -0.87445934  1
  C  C14  1  -0.64341554  -0.06454739  -0.86896387  1
  C  C15  1  -0.64642195  -0.17172540  -0.96204328  1
  C  C16  1  -0.58857760  -0.17432911  -0.96786658  1
  C  C17  1  -0.55659641  -0.12211718  -0.92390959  1
  H  H18  1  -0.25012886  0.00477775  -0.76999820  1
  H  H19  1  -0.31301718  0.05374994  -0.73860642  1
  H  H20  1  -0.27610800  0.10245547  -0.81998248  1
  H  H21  1  -0.42541785  0.06437397  -0.76077327  1
  H  H22  1  -0.43755803  0.10880774  -0.85633815  1
  H  H23  1  -0.37672567  0.13351109  -0.81240390  1
  H  H24  1  -0.30017694  -0.17766474  -0.96018339  1
  H  H25  1  -0.38534972  -0.22880750  -1.00254665  1
  H  H26  1  -0.48392804  -0.22706012  -1.00438101  1
  H  H27  1  -0.57630337  0.02860661  -0.79185817  1
  H  H28  1  -0.66452832  -0.02267271  -0.82986268  1
  H  H29  1  -0.66939050  -0.21183969  -0.99738090  1
  H  H30  1  -0.57029582  -0.21705163  -1.00797569  1
  C  C31  1  -0.29213528  -0.07631122  -0.88424774  1
  C  C32  1  -0.23086169  -0.08644119  -0.88672072  1
  C  C33  1  -0.20535780  -0.16660647  -0.86445447  1
  C  C34  1  -0.14759672  -0.17650366  -0.86746812  1
  N  N35  1  -0.11487678  -0.10664552  -0.89314942  1
  C  C36  1  -0.14003701  -0.02683800  -0.91599787  1
  C  C37  1  -0.19778494  -0.01676802  -0.91305517  1
  C  C38  1  -0.67444495  -0.11707735  -0.91260385  1
  C  C39  1  -0.73597721  -0.11468861  -0.90674630  1
  C  C40  1  -0.76572599  -0.19201906  -0.90675305  1
  C  C41  1  -0.82363677  -0.18966417  -0.90120436  1
  N  N42  1  -0.85253847  -0.11021704  -0.89563773  1
  C  C43  1  -0.82342105  -0.03298958  -0.89564828  1
  C  C44  1  -0.76550833  -0.03507601  -0.90113340  1
  H  H45  1  -0.23020264  -0.22117573  -0.84436648  1
  H  H46  1  -0.12836404  -0.23847378  -0.84987891  1
  H  H47  1  -0.11494380  0.02733019  -0.93624779  1
  H  H48  1  -0.21673645  0.04510361  -0.93160852  1
  H  H49  1  -0.74418649  -0.25438821  -0.91005725  1
  H  H50  1  -0.84595505  -0.24970214  -0.90102830  1
  H  H51  1  -0.84558516  0.02875328  -0.89157659  1
  H  H52  1  -0.74386644  0.02564702  -0.90198689  1
  O  O53  1  0.00883071  -0.64860977  -0.69117637  1
  C  C54  1  0.01483551  -0.57556549  -0.74136319  1
  C  C55  1  0.01879783  -0.49018229  -0.71641439  1
  C  C56  1  0.00904521  -0.47602947  -0.63226046  1
  C  C57  1  0.06166304  -0.49418070  -0.58689269  1
  C  C58  1  -0.01893218  -0.38832187  -0.61438152  1
  C  C59  1  0.03120133  -0.42126812  -0.77096303  1
  C  C60  1  0.05971606  -0.34103376  -0.74779511  1
  C  C61  1  0.02407690  -0.43344937  -0.84894077  1
  C  C62  1  0.02160089  -0.37891083  -0.98225499  1
  C  C63  1  0.01777279  -0.30387950  -1.04133828  1
  C  C64  1  0.02757255  -0.46546842  -1.00403487  1
  C  C65  1  0.03335875  -0.48692901  -1.08541335  1
  C  C66  1  0.02472085  -0.53414425  -0.94943541  1
  C  C67  1  0.02207641  -0.51963441  -0.87229017  1
  C  C68  1  0.01827712  -0.59023403  -0.81818564  1
  C  C69  1  0.01641675  -0.68120868  -0.84062437  1
  C  C70  1  0.06538749  -0.72605359  -0.85998150  1
  C  C71  1  0.06371511  -0.81149788  -0.88157162  1
  C  C72  1  -0.03671895  -0.80924853  -0.86279291  1
  C  C73  1  -0.09242928  -0.85115831  -0.86109658  1
  C  C74  1  -0.03430954  -0.72276996  -0.84197008  1
  H  H75  1  0.01192352  -0.64854920  -0.63484384  1
  H  H76  1  -0.02209262  -0.52362259  -0.61042402  1
  H  H77  1  0.05054323  -0.49944726  -0.52593365  1
  H  H78  1  0.09187142  -0.44160477  -0.59650385  1
  H  H79  1  0.08236867  -0.55632575  -0.60185350  1
  H  H80  1  0.01158921  -0.33637181  -0.61085410  1
  H  H81  1  -0.05023080  -0.36822842  -0.65687602  1
  H  H82  1  -0.04071240  -0.39466012  -0.55860145  1
  H  H83  1  0.08869661  -0.31612448  -0.79305808  1
  H  H84  1  0.02916622  -0.28885960  -0.73413998  1
  H  H85  1  0.08628648  -0.35626860  -0.69922434  1
  H  H86  1  0.05866445  -0.27279829  -1.04878866  1
  H  H87  1  -0.01404447  -0.25462401  -1.02490582  1
  H  H88  1  0.00485821  -0.32443179  -1.09649652  1
  H  H89  1  0.04733181  -0.55564499  -1.09123943  1
  H  H90  1  0.06487517  -0.44537549  -1.11521012  1
  H  H91  1  -0.00720572  -0.47672574  -1.11276877  1
  H  H92  1  0.02519205  -0.59977144  -0.96813965  1
  H  H93  1  0.10487888  -0.69450548  -0.85886392  1
  H  H94  1  0.10234558  -0.84400841  -0.89726772  1
  H  H95  1  -0.12439512  -0.81217107  -0.83084304  1
  H  H96  1  -0.08999244  -0.91644517  -0.83119400  1
  H  H97  1  -0.10625863  -0.85687725  -0.91933365  1
  H  H98  1  -0.07198164  -0.68745172  -0.82635110  1
  C  C99  1  0.01956405  -0.36271435  -0.90456023  1
  C  C100  1  0.01302525  -0.85415719  -0.88422091  1
  C  C101  1  0.02753751  -0.08642354  -1.18154895  1
  C  C102  1  0.03658947  -0.06862046  -1.26143548  1
  C  C103  1  0.07353689  -0.00469892  -1.29014955  1
  C  C104  1  0.10714954  0.04455398  -1.23692083  1
  C  C105  1  0.07767245  0.01429089  -1.36903114  1
  C  C106  1  0.11180813  0.09013101  -1.40081588  1
  C  C107  1  0.05003155  -0.03886018  -1.41825170  1
  C  C108  1  0.05876171  -0.02848251  -1.49679344  1
  C  C109  1  0.03124515  -0.07894329  -1.54560844  1
  C  C110  1  0.04031591  -0.06632051  -1.62341295  1
  C  C111  1  -0.02368732  -0.18110575  -1.64504267  1
  C  C112  1  -0.05221052  -0.23899997  -1.69652543  1
  C  C113  1  -0.03343053  -0.19250311  -1.56669702  1
  C  C114  1  -0.00594506  -0.14181749  -1.51680099  1
  C  C115  1  -0.01552494  -0.15500450  -1.43832753  1
  C  C116  1  0.01339649  -0.10407982  -1.38849076  1
  C  C117  1  0.00698430  -0.11650409  -1.30988015  1
  C  C118  1  -0.05606308  -0.22255288  -1.41160094  1
  C  C119  1  -0.08143386  -0.26873327  -1.46065135  1
  O  O120  1  -0.07065004  -0.25495943  -1.53768739  1
  H  H121  1  0.08745463  0.10958841  -1.22932344  1
  H  H122  1  0.11096950  0.00992959  -1.18093976  1
  H  H123  1  0.15029439  0.05206598  -1.25920947  1
  H  H124  1  0.15219476  0.06545952  -1.42351117  1
  H  H125  1  0.08914954  0.12771334  -1.44583289  1
  H  H126  1  0.11954302  0.13845400  -1.35905432  1
  H  H127  1  0.08789672  0.01800531  -1.52125738  1
  H  H128  1  0.06841738  -0.01645977  -1.64505986  1
  H  H129  1  -0.06735129  -0.29925060  -1.66635547  1
  H  H130  1  -0.08817761  -0.20323093  -1.72209297  1
  H  H131  1  -0.02285507  -0.26040751  -1.74128458  1
  H  H132  1  -0.02025979  -0.16454544  -1.28406413  1
  H  H133  1  -0.06675425  -0.23618370  -1.35310972  1
  H  H134  1  -0.11078464  -0.31742680  -1.44088537  1
  C  C135  1  0.01990244  -0.10134535  -1.11496830  1
  C  C136  1  0.01268688  -0.11552618  -1.67381410  1
  Cu  Cu137  1  -0.03820978  -0.10769152  -0.89387240  1
  Cu  Cu138  1  0.07079451  -0.10917822  -0.89490855  1
  C  C139  1  0.01409474  -0.11629588  -0.75733887  1
  C  C140  1  0.01430754  0.04981065  -0.89105801  1
  C  C141  1  0.01849184  -0.10057571  -1.03144224  1
  C  C142  1  0.01827812  -0.26668216  -0.89772309  1
  O  O143  1  0.06410428  -0.10094886  -1.00384815  1
  O  O144  1  0.06065300  -0.11717800  -0.78580885  1
  O  O145  1  0.06082392  0.01695447  -0.89378855  1
  O  O146  1  0.06393247  -0.23508137  -0.89586978  1
  O  O147  1  -0.03134773  0.01821164  -0.89291252  1
  O  O148  1  -0.03151956  -0.11592088  -0.78493281  1
  O  O149  1  -0.02806827  -0.09969174  -1.00297210  1
  O  O150  1  -0.02823917  -0.23382420  -0.89499375  1
